Version 4
SHEET 1 880 680
WIRE 208 -320 -336 -320
WIRE -336 -256 -336 -320
WIRE -336 -144 -336 -176
WIRE 208 -128 208 -320
WIRE -336 -16 -336 -64
WIRE -336 128 -336 64
WIRE -80 128 -336 128
WIRE 208 128 208 -48
WIRE 208 128 -80 128
WIRE -80 208 -80 128
FLAG -80 208 0
SYMBOL voltage -336 -272 R0
WINDOW 123 0 0 Left 0
WINDOW 39 0 0 Left 0
SYMATTR InstName V1
SYMATTR Value SINE(0 1 50)
SYMBOL voltage -336 -160 R0
WINDOW 123 0 0 Left 0
WINDOW 39 0 0 Left 0
SYMATTR InstName V2
SYMATTR Value SINE(0 -0.1111 150)
SYMBOL voltage -336 -32 R0
WINDOW 123 0 0 Left 0
WINDOW 39 0 0 Left 0
SYMATTR InstName V3
SYMATTR Value SINE(0 0.04 250)
SYMBOL res 192 -144 R0
SYMATTR InstName R1
SYMATTR Value 10
TEXT -370 232 Left 2 !.tran 0.06
